ES12_EXP_CURRENTS.CSV
Element, I1_1, Ang1_1, I1_2, Ang1_2, I1_3, Ang1_3, I1_4, Ang1_4, Iresid1, AngResid1, I2_1, Ang2_1, I2_2, Ang2_2, I2_3, Ang2_3, I2_4, Ang2_4, Iresid2, AngResid2
Vsource.SOURCE,    81.1611,   154.55,    81.1608,    34.55,    81.1607,   -85.45,          0,     0.00, 0.000451908,   100.41,    81.1611,   -25.45,    81.1608,  -145.45,    81.1607,    94.55,          0,     0.00, 0.000451908,   -79.59
Line.L_BSB_MT_8921,    29.0984,   155.28,    29.0983,    35.28,    29.0984,   -84.72,          0,     0.00, 0.000150263,    96.81,    29.0984,   -24.72,    29.0983,  -144.72,    29.0984,    95.28,          0,     0.00, 0.000150263,   -83.19
Line.L_BSB_MT_3002,    1.93383,   155.28,    1.93394,    35.28,    1.93397,   -84.72,          0,     0.00, 4.03179E-005,   -82.60,    1.93383,   -24.72,    1.93394,  -144.72,    1.93397,    95.28,          0,     0.00, 4.03179E-005,    97.40
Line.L_BSB_MT_3003,    29.0985,   155.28,    29.0983,    35.28,    29.0985,   -84.72,          0,     0.00, 5.35624E-005,   133.48,    29.0985,   -24.72,    29.0983,  -144.72,    29.0985,    95.28,          0,     0.00, 5.35624E-005,   -46.52
Line.L_BSB_MT_3008,     5.8307,   -24.69,     5.8307,  -144.69,     5.8307,    95.31,          0,     0.00, 7.02953E-007,   143.38,     5.8307,   155.31,     5.8307,    35.31,     5.8307,   -84.69,          0,     0.00, 7.02979E-007,   -36.62
Line.L_BSB_MT_3024,    1.93383,   155.28,    1.93394,    35.28,    1.93397,   -84.72,          0,     0.00, 4.03177E-005,   -82.60,    1.93383,   -24.72,    1.93394,  -144.72,    1.93397,    95.28,          0,     0.00, 4.03176E-005,    97.40
Line.L_BSB_MT_7628,    7.74722,   -24.71,    7.74722,  -144.71,    7.74722,    95.29,          0,     0.00, 9.62732E-007,   143.62,    7.74722,   155.29,    7.74722,    35.29,    7.74722,   -84.71,          0,     0.00, 9.62687E-007,   -36.38
Line.L_BSB_MT_3131, 5.80823E-005,   -44.86, 1.2732E-005,   116.17, 7.97265E-005,   168.37,          0,     0.00, 4.46154E-005,  -162.43, 5.80823E-005,   135.14, 1.27319E-005,   -63.83, 7.97265E-005,   -11.63,          0,     0.00, 4.46155E-005,    17.57
Line.L_BSB_MT_3132, 5.80823E-005,   -44.86, 1.27319E-005,   116.17, 7.97265E-005,   168.37,          0,     0.00, 4.46153E-005,  -162.43, 5.80823E-005,   135.14, 1.27319E-005,   -63.83, 7.97264E-005,   -11.63,          0,     0.00, 4.46153E-005,    17.57
Line.L_BSB_MT_3133, 5.80823E-005,   -44.86, 1.27318E-005,   116.17, 7.97265E-005,   168.37,          0,     0.00, 4.46152E-005,  -162.43, 5.80823E-005,   135.14, 1.27318E-005,   -63.83, 7.97265E-005,   -11.63,          0,     0.00, 4.46153E-005,    17.57
Line.L_BSB_MT_3134,    1.17808,   -24.65,    1.17798,  -144.65,    1.17809,    95.35,          0,     0.00, 0.000109878,    23.74,    1.17808,   155.35,    1.17798,    35.35,    1.17809,   -84.65,          0,     0.00, 0.000109878,  -156.26
Line.L_BSB_MT_3135,    1.17805,   -24.65,    1.17801,  -144.65,    1.17803,    95.36,          0,     0.00, 0.000126305,  -155.69,    1.17805,   155.35,    1.17801,    35.35,    1.17803,   -84.64,          0,     0.00, 0.000126305,    24.31
Line.L_BSB_MT_3136,    1.17805,   -24.65,    1.17801,  -144.65,    1.17803,    95.36,          0,     0.00, 0.000126305,  -155.69,    1.17805,   155.35,    1.17801,    35.35,    1.17803,   -84.64,          0,     0.00, 0.000126305,    24.31
Line.L_BSB_MT_3137,   0.785308,   -24.65,   0.785359,  -144.65,   0.785309,    95.35,          0,     0.00, 8.48857E-005,  -122.19,   0.785308,   155.35,   0.785359,    35.35,   0.785309,   -84.65,          0,     0.00, 8.48856E-005,    57.81
Line.L_BSB_MT_3138,   0.785369,   155.35,   0.785369,    35.35,   0.785369,   -84.65,          0,     0.00, 8.332E-008,   -36.11,   0.785369,   -24.65,   0.785369,  -144.65,   0.785369,    95.35,          0,     0.00, 8.32751E-008,   143.90
Line.L_BSB_MT_3139, 2.55525E-005,   106.77, 3.14963E-005,  -150.16, 3.57946E-005,   -14.23,          0,     0.00, 1.68105E-009,   -20.79, 2.55525E-005,   -73.23, 3.14964E-005,    29.84, 3.57947E-005,   165.77,          0,     0.00, 1.69859E-009,   153.00
Line.L_BSB_MT_3144,     5.8307,   -24.69,     5.8307,  -144.69,     5.8307,    95.31,          0,     0.00, 7.03064E-007,   143.37,     5.8307,   155.31,     5.8307,    35.31,     5.8307,   -84.69,          0,     0.00, 7.03093E-007,   -36.63
Line.L_BSB_MT_3147,    29.0985,   155.28,    29.0983,    35.28,    29.0985,   -84.72,          0,     0.00, 5.35624E-005,   133.48,    29.0985,   -24.72,    29.0983,  -144.72,    29.0985,    95.28,          0,     0.00, 5.35625E-005,   -46.52
Line.L_BSB_MT_3148,    26.1917,   155.28,    26.1915,    35.28,    26.1918,   -84.72,          0,     0.00, 0.000147517,  -132.72,    26.1917,   -24.72,    26.1915,  -144.72,    26.1918,    95.28,          0,     0.00, 0.000147517,    47.28
Line.L_BSB_MT_3149,    8.90941,   155.29,    8.90954,    35.29,    8.90947,   -84.71,          0,     0.00, 0.000142606,   -12.71,    8.90941,   -24.71,    8.90954,  -144.71,    8.90947,    95.29,          0,     0.00, 0.000142606,   167.29
Line.L_BSB_MT_3150,    16.7657,   155.28,    16.7653,    35.28,    16.7657,   -84.72,          0,     0.00, 0.000258127,  -157.91,    16.7657,   -24.72,    16.7653,  -144.72,    16.7657,    95.28,          0,     0.00, 0.000258127,    22.09
Line.L_BSB_MT_3151,    7.74722,   -24.71,    7.74729,  -144.71,     7.7473,    95.29,          0,     0.00, 0.00014858,   164.20,    7.74722,   155.29,    7.74729,    35.29,     7.7473,   -84.71,          0,     0.00, 0.00014858,   -15.80
Line.L_BSB_MT_3153,    1.16223,   -24.71,    1.16226,  -144.71,    1.16219,    95.29,          0,     0.00, 0.000101008,   -47.83,    1.16223,   155.29,    1.16226,    35.29,    1.16219,   -84.71,          0,     0.00, 0.000101008,   132.17
Line.L_BSB_MT_3154,    1.16223,   -24.71,    1.16226,  -144.71,    1.16219,    95.29,          0,     0.00, 0.000101008,   -47.83,    1.16223,   155.29,    1.16226,    35.29,    1.16219,   -84.71,          0,     0.00, 0.000101008,   132.17
Line.L_BSB_MT_3155,    1.16223,   -24.71,    1.16226,  -144.71,    1.16219,    95.29,          0,     0.00, 0.000101008,   -47.83,    1.16223,   155.29,    1.16226,    35.29,    1.16219,   -84.71,          0,     0.00, 0.000101008,   132.17
Line.L_BSB_MT_7818,    29.0985,   155.28,    29.0983,    35.28,    29.0985,   -84.72,          0,     0.00, 5.35625E-005,   133.49,    29.0985,   -24.72,    29.0983,  -144.72,    29.0985,    95.28,          0,     0.00, 5.35625E-005,   -46.51
Line.L_BSB_MT_7820,     79.983,   154.54,     79.983,    34.54,    79.9828,   -85.46,          0,     0.00, 0.000385354,    93.19,     79.983,   -25.46,     79.983,  -145.46,    79.9828,    94.54,          0,     0.00, 0.000385354,   -86.81
Line.L_BSB_MT_7821,    34.9291,   155.29,     34.929,    35.29,    34.9291,   -84.71,          0,     0.00, 0.000149781,    96.61,    34.9291,   -24.71,     34.929,  -144.71,    34.9291,    95.29,          0,     0.00, 0.000149781,   -83.39
Line.L_BSB_MT_7822,    34.9291,   155.29,     34.929,    35.29,    34.9291,   -84.71,          0,     0.00, 0.000149781,    96.61,    34.9291,   -24.71,     34.929,  -144.71,    34.9291,    95.29,          0,     0.00, 0.000149781,   -83.39
Line.L_BSB_MT_7825,    81.1609,   154.55,    81.1609,    34.55,    81.1607,   -85.45,          0,     0.00, 0.000361723,   109.71,    81.1609,   -25.45,    81.1609,  -145.45,    81.1607,    94.55,          0,     0.00, 0.000361723,   -70.29
Line.L_BSB_MT_3156, 2.99761E-005,   103.85, 5.91806E-005,   -68.91, 7.26696E-005,   -42.22,          0,     0.00, 0.000101151,   -47.81, 2.99761E-005,   -76.15, 5.91806E-005,   111.09, 7.26696E-005,   137.78,          0,     0.00, 0.000101151,   132.19
Line.L_BSB_MT_3183,    5.80204,   155.28,    5.80194,    35.28,    5.80211,   -84.72,          0,     0.00, 8.3409E-005,  -127.54,    5.80204,   -24.72,    5.80194,  -144.72,    5.80211,    95.28,          0,     0.00, 8.34089E-005,    52.46
Line.L_BSB_MT_3197,    1.17805,   -24.65,    1.17801,  -144.65,    1.17803,    95.36,          0,     0.00, 0.000126305,  -155.69,    1.17805,   155.35,    1.17801,    35.35,    1.17803,   -84.64,          0,     0.00, 0.000126305,    24.31
Line.L_BSB_MT_7826,     79.983,   154.54,     79.983,    34.54,    79.9828,   -85.46,          0,     0.00, 0.000385354,    93.19,     79.983,   -25.46,     79.983,  -145.46,    79.9828,    94.54,          0,     0.00, 0.000385354,   -86.81
Line.L_BSB_MT_7827,     79.983,   154.54,     79.983,    34.54,    79.9828,   -85.46,          0,     0.00, 0.000385353,    93.19,     79.983,   -25.46,     79.983,  -145.46,    79.9828,    94.54,          0,     0.00, 0.000385353,   -86.81
Line.L_BSB_MT_7828,    81.1611,   154.55,    81.1609,    34.55,    81.1606,   -85.45,          0,     0.00, 0.000618927,   108.77,    81.1611,   -25.45,    81.1609,  -145.45,    81.1606,    94.55,          0,     0.00, 0.000618927,   -71.23
Line.L_BSB_MT_7830,    81.1611,   154.55,    81.1609,    34.55,    81.1606,   -85.45,          0,     0.00, 0.000618927,   108.77,    81.1611,   -25.45,    81.1609,  -145.45,    81.1606,    94.55,          0,     0.00, 0.000618927,   -71.23
Line.L_BSB_MT_7831,    81.1611,   154.55,    81.1609,    34.55,    81.1606,   -85.45,          0,     0.00, 0.000618927,   108.77,    81.1611,   -25.45,    81.1609,  -145.45,    81.1606,    94.55,          0,     0.00, 0.000618927,   -71.23
Line.L_BSB_MT_7832,    81.1611,   154.55,    81.1609,    34.55,    81.1606,   -85.45,          0,     0.00, 0.000618927,   108.77,    81.1611,   -25.45,    81.1609,  -145.45,    81.1606,    94.55,          0,     0.00, 0.000618927,   -71.23
Line.L_BSB_MT_56010,    7.74722,   -24.71,    7.74722,  -144.71,    7.74722,    95.29,          0,     0.00, 9.62802E-007,   143.61,    7.74722,   155.29,    7.74722,    35.29,    7.74722,   -84.71,          0,     0.00, 9.62822E-007,   -36.39
Line.L_BSB_MT_56012,    1.93383,   -24.72,    1.93394,  -144.72,    1.93397,    95.28,          0,     0.00, 4.03182E-005,    97.40,    1.93383,   155.28,    1.93394,    35.28,    1.93397,   -84.72,          0,     0.00, 4.03182E-005,   -82.60
Line.L_BSB_MT_56013,     1.9339,   -24.72,    1.93388,  -144.72,     1.9339,    95.28,          0,     0.00, 7.17648E-005,    21.44,     1.9339,   155.28,    1.93388,    35.28,     1.9339,   -84.72,          0,     0.00, 7.17647E-005,  -158.56
Line.L_BSB_MT_56014,     1.9339,   -24.72,    1.93388,  -144.72,     1.9339,    95.28,          0,     0.00, 7.17651E-005,    21.44,     1.9339,   155.28,    1.93388,    35.28,     1.9339,   -84.72,          0,     0.00, 7.17651E-005,  -158.56
Line.L_BSB_MT_56015,    1.93383,   -24.72,    1.93383,  -144.72,    1.93383,    95.28,          0,     0.00, 2.36179E-007,   149.28,    1.93383,   155.28,    1.93383,    35.28,    1.93383,   -84.72,          0,     0.00, 2.36163E-007,   -30.76
Line.L_BSB_MT_6796,   0.392745,   155.35,   0.392652,    35.35,   0.392724,   -84.63,          0,     0.00, 7.26456E-005,   -15.85,   0.392745,   -24.65,   0.392652,  -144.65,   0.392724,    95.37,          0,     0.00, 7.26457E-005,   164.15
Line.L_BSB_MT_6800,    5.80204,   155.28,    5.80194,    35.28,    5.80211,   -84.72,          0,     0.00, 8.34091E-005,  -127.54,    5.80204,   -24.72,    5.80194,  -144.72,    5.80211,    95.28,          0,     0.00, 8.3409E-005,    52.46
Line.L_BSB_MT_7975,    1.17805,   -24.65,    1.17801,  -144.65,    1.17803,    95.36,          0,     0.00, 0.000126305,  -155.69,    1.17805,   155.35,    1.17801,    35.35,    1.17803,   -84.64,          0,     0.00, 0.000126305,    24.31
Line.L_BSB_MT_5696,    81.1611,   154.55,    81.1609,    34.55,    81.1606,   -85.45,          0,     0.00, 0.000618927,   108.77,    81.1611,   -25.45,    81.1609,  -145.45,    81.1606,    94.55,          0,     0.00, 0.000618927,   -71.23
Line.L_BSB_MT_8139, 5.80822E-005,   -44.86, 1.27319E-005,   116.17, 7.97264E-005,   168.37,          0,     0.00, 4.46153E-005,  -162.43, 5.80822E-005,   135.14, 1.27319E-005,   -63.83, 7.97264E-005,   -11.63,          0,     0.00, 4.46153E-005,    17.57
Line.L_BSB_MT_9323,     3.8681,   -24.72,     3.8681,  -144.72,     3.8681,    95.28,          0,     0.00, 4.77106E-007,   149.15,     3.8681,   155.28,     3.8681,    35.28,     3.8681,   -84.72,          0,     0.00, 4.77091E-007,   -30.85
Line.L_BSB_MT_9324,    7.73791,   -24.72,    7.73791,  -144.72,    7.73791,    95.28,          0,     0.00, 9.57456E-007,   148.51,    7.73791,   155.28,    7.73791,    35.28,    7.73791,   -84.72,          0,     0.00, 9.57734E-007,   -31.49
Line.L_BSB_MT_5715,    81.1611,   154.55,    81.1609,    34.55,    81.1606,   -85.45,          0,     0.00, 0.000618927,   108.77,    81.1611,   -25.45,    81.1609,  -145.45,    81.1606,    94.55,          0,     0.00, 0.000618927,   -71.23
Line.L_BSB_MT_5716,   0.785369,   -24.65,   0.785369,  -144.65,   0.785369,    95.35,          0,     0.00, 8.32836E-008,   143.96,   0.785369,   155.35,   0.785369,    35.35,   0.785369,   -84.65,          0,     0.00, 8.32023E-008,   -36.03
Line.L_BSB_MT_5718,    1.16219,   155.29,    1.16225,    35.29,    1.16217,   -84.71,          0,     0.00, 9.84973E-006,   113.07,    1.16219,   -24.71,    1.16225,  -144.71,    1.16217,    95.29,          0,     0.00, 9.84978E-006,   -66.93
Line.L_BSB_MT_5722,    1.93383,   155.28,    1.93394,    35.28,    1.93397,   -84.72,          0,     0.00, 4.03178E-005,   -82.60,    1.93383,   -24.72,    1.93394,  -144.72,    1.93397,    95.28,          0,     0.00, 4.03178E-005,    97.40
Line.L_BSB_MT_8497,    1.93383,   155.28,    1.93394,    35.28,    1.93397,   -84.72,          0,     0.00, 4.03181E-005,   -82.60,    1.93383,   -24.72,    1.93394,  -144.72,    1.93397,    95.28,          0,     0.00, 4.0318E-005,    97.40
Line.L_BSB_MT_8499,    5.80204,   155.28,    5.80194,    35.28,    5.80211,   -84.72,          0,     0.00, 8.3409E-005,  -127.54,    5.80204,   -24.72,    5.80194,  -144.72,    5.80211,    95.28,          0,     0.00, 8.3409E-005,    52.46
Line.L_BSB_MT_8501,     14.056,   155.28,    14.0557,    35.28,    14.0559,   -84.72,          0,     0.00, 0.000290114,  -174.35,     14.056,   -24.72,    14.0557,  -144.72,    14.0559,    95.28,          0,     0.00, 0.000290114,     5.65
Line.L_BSB_MT_8502,    14.8302,   155.28,    14.8297,    35.28,    14.8301,   -84.72,          0,     0.00, 0.000375295,  -157.06,    14.8302,   -24.72,    14.8297,  -144.72,    14.8301,    95.28,          0,     0.00, 0.000375295,    22.94
Line.L_BSB_MT_8503,    16.7656,   155.28,    16.7653,    35.28,    16.7658,   -84.72,          0,     0.00, 0.000278116,  -112.10,    16.7656,   -24.72,    16.7653,  -144.72,    16.7658,    95.28,          0,     0.00, 0.000278116,    67.90
Line.L_BSB_MT_8504,    29.0984,   155.28,    29.0983,    35.28,    29.0984,   -84.72,          0,     0.00, 0.000150263,    96.81,    29.0984,   -24.72,    29.0983,  -144.72,    29.0984,    95.28,          0,     0.00, 0.000150263,   -83.19
Line.L_BSB_MT_8513,     5.8307,   -24.69,     5.8307,  -144.69,     5.8307,    95.31,          0,     0.00, 7.02952E-007,   143.39,     5.8307,   155.31,     5.8307,    35.31,     5.8307,   -84.69,          0,     0.00, 7.02978E-007,   -36.62
Line.L_BSB_MT_8519,    29.0984,   155.28,    29.0983,    35.28,    29.0984,   -84.72,          0,     0.00, 0.000150263,    96.81,    29.0984,   -24.72,    29.0983,  -144.72,    29.0984,    95.28,          0,     0.00, 0.000150263,   -83.19
Line.L_BSB_MT_8520,    29.0984,   155.28,    29.0983,    35.28,    29.0984,   -84.72,          0,     0.00, 0.000150263,    96.81,    29.0984,   -24.72,    29.0983,  -144.72,    29.0984,    95.28,          0,     0.00, 0.000150263,   -83.19
Line.L_BSB_MT_8521,    29.0984,   155.28,    29.0983,    35.28,    29.0984,   -84.72,          0,     0.00, 0.000150263,    96.81,    29.0984,   -24.72,    29.0983,  -144.72,    29.0984,    95.28,          0,     0.00, 0.000150263,   -83.19
Line.L_BSB_MT_8522,    29.0984,   155.28,    29.0983,    35.28,    29.0984,   -84.72,          0,     0.00, 0.000150263,    96.81,    29.0984,   -24.72,    29.0983,  -144.72,    29.0984,    95.28,          0,     0.00, 0.000150263,   -83.19
Line.L_BSB_MT_8523,    29.0984,   155.28,    29.0983,    35.28,    29.0984,   -84.72,          0,     0.00, 0.000150263,    96.81,    29.0984,   -24.72,    29.0983,  -144.72,    29.0984,    95.28,          0,     0.00, 0.000150263,   -83.19
Line.L_BSB_MT_8524,    29.0984,   -24.72,    29.0983,  -144.72,    29.0984,    95.28,          0,     0.00, 0.000150263,   -83.19,    29.0984,   155.28,    29.0983,    35.28,    29.0984,   -84.72,          0,     0.00, 0.000150263,    96.81
Line.L_BSB_MT_8525,    29.0984,   155.28,    29.0983,    35.28,    29.0984,   -84.72,          0,     0.00, 0.000150263,    96.81,    29.0984,   -24.72,    29.0983,  -144.72,    29.0984,    95.28,          0,     0.00, 0.000150263,   -83.19
Line.L_BSB_MT_8526,    29.0984,   155.28,    29.0983,    35.28,    29.0984,   -84.72,          0,     0.00, 0.000150263,    96.81,    29.0984,   -24.72,    29.0983,  -144.72,    29.0984,    95.28,          0,     0.00, 0.000150263,   -83.19
Line.L_BSB_MT_8527,    29.0984,   155.28,    29.0983,    35.28,    29.0984,   -84.72,          0,     0.00, 0.000150263,    96.81,    29.0984,   -24.72,    29.0983,  -144.72,    29.0984,    95.28,          0,     0.00, 0.000150263,   -83.19
Line.L_BSB_MT_8531,     79.983,   154.54,     79.983,    34.54,    79.9828,   -85.46,          0,     0.00, 0.000385354,    93.19,     79.983,   -25.46,     79.983,  -145.46,    79.9828,    94.54,          0,     0.00, 0.000385354,   -86.81
Line.L_BSB_MT_3168,     14.056,   155.28,    14.0557,    35.28,    14.0559,   -84.72,          0,     0.00, 0.000290115,  -174.35,     14.056,   -24.72,    14.0557,  -144.72,    14.0559,    95.28,          0,     0.00, 0.000290115,     5.65
Line.L_BSB_MT_3169,   0.774052,   -24.72,   0.774052,  -144.72,   0.774052,    95.28,          0,     0.00, 9.52218E-008,   147.52,   0.774052,   155.28,   0.774052,    35.28,   0.774052,   -84.72,          0,     0.00, 9.51773E-008,   -32.37
Line.L_BSB_MT_8532,     79.983,   154.54,     79.983,    34.54,    79.9828,   -85.46,          0,     0.00, 0.000385354,    93.19,     79.983,   -25.46,     79.983,  -145.46,    79.9828,    94.54,          0,     0.00, 0.000385354,   -86.81
Line.L_BSB_MT_8533,     79.983,   154.54,     79.983,    34.54,    79.9828,   -85.46,          0,     0.00, 0.000385354,    93.19,     79.983,   -25.46,     79.983,  -145.46,    79.9828,    94.54,          0,     0.00, 0.000385354,   -86.81
Line.L_BSB_MT_8534,     79.983,   154.54,     79.983,    34.54,    79.9828,   -85.46,          0,     0.00, 0.000385354,    93.19,     79.983,   -25.46,     79.983,  -145.46,    79.9828,    94.54,          0,     0.00, 0.000385354,   -86.81
Line.L_BSB_MT_8535,     79.983,   154.54,     79.983,    34.54,    79.9828,   -85.46,          0,     0.00, 0.000385354,    93.19,     79.983,   -25.46,     79.983,  -145.46,    79.9828,    94.54,          0,     0.00, 0.000385354,   -86.81
Line.L_BSB_MT_8536,    34.9291,   155.29,     34.929,    35.29,    34.9291,   -84.71,          0,     0.00, 0.000149781,    96.61,    34.9291,   -24.71,     34.929,  -144.71,    34.9291,    95.29,          0,     0.00, 0.000149781,   -83.39
Line.L_BSB_MT_8537,    34.9291,   155.29,     34.929,    35.29,    34.9291,   -84.71,          0,     0.00, 0.000149781,    96.61,    34.9291,   -24.71,     34.929,  -144.71,    34.9291,    95.29,          0,     0.00, 0.000149781,   -83.39
Line.L_BSB_MT_8538,    34.9291,   155.29,     34.929,    35.29,    34.9291,   -84.71,          0,     0.00, 0.000149781,    96.61,    34.9291,   -24.71,     34.929,  -144.71,    34.9291,    95.29,          0,     0.00, 0.000149781,   -83.39
Line.L_BSB_MT_8539,    29.0984,   155.28,    29.0983,    35.28,    29.0984,   -84.72,          0,     0.00, 0.000150263,    96.81,    29.0984,   -24.72,    29.0983,  -144.72,    29.0984,    95.28,          0,     0.00, 0.000150263,   -83.19
Line.L_BSB_MT_8544,    81.1609,   154.55,    81.1609,    34.55,    81.1607,   -85.45,          0,     0.00, 0.000361723,   109.71,    81.1609,   -25.45,    81.1609,  -145.45,    81.1607,    94.55,          0,     0.00, 0.000361723,   -70.29
Line.L_BSB_MT_8545,    81.1609,   154.55,    81.1609,    34.55,    81.1607,   -85.45,          0,     0.00, 0.000361723,   109.71,    81.1609,   -25.45,    81.1609,  -145.45,    81.1607,    94.55,          0,     0.00, 0.000361723,   -70.29
Line.L_BSB_MT_8546,     79.983,   154.54,     79.983,    34.54,    79.9828,   -85.46,          0,     0.00, 0.000385354,    93.19,     79.983,   -25.46,     79.983,  -145.46,    79.9828,    94.54,          0,     0.00, 0.000385355,   -86.81
Line.L_BSB_MT_8547,     79.983,   154.54,     79.983,    34.54,    79.9828,   -85.46,          0,     0.00, 0.000385354,    93.19,     79.983,   -25.46,     79.983,  -145.46,    79.9828,    94.54,          0,     0.00, 0.000385354,   -86.81
Line.L_BSB_MT_8548,     79.983,   154.54,     79.983,    34.54,    79.9828,   -85.46,          0,     0.00, 0.000385354,    93.19,     79.983,   -25.46,     79.983,  -145.46,    79.9828,    94.54,          0,     0.00, 0.000385354,   -86.81
Line.L_BSB_MT_8549,     79.983,   154.54,     79.983,    34.54,    79.9828,   -85.46,          0,     0.00, 0.000385354,    93.19,     79.983,   -25.46,     79.983,  -145.46,    79.9828,    94.54,          0,     0.00, 0.000385354,   -86.81
Line.L_BSB_MT_8550,     79.983,   154.54,     79.983,    34.54,    79.9828,   -85.46,          0,     0.00, 0.000385354,    93.19,     79.983,   -25.46,     79.983,  -145.46,    79.9828,    94.54,          0,     0.00, 0.000385354,   -86.81
Line.L_BSB_MT_8551,     79.983,   154.54,     79.983,    34.54,    79.9828,   -85.46,          0,     0.00, 0.000385353,    93.19,     79.983,   -25.46,     79.983,  -145.46,    79.9828,    94.54,          0,     0.00, 0.000385354,   -86.81
Line.L_BSB_MT_8552,     79.983,   154.54,     79.983,    34.54,    79.9828,   -85.46,          0,     0.00, 0.000385354,    93.19,     79.983,   -25.46,     79.983,  -145.46,    79.9828,    94.54,          0,     0.00, 0.000385354,   -86.81
Line.L_BSB_MT_8553,    81.1611,   154.55,    81.1609,    34.55,    81.1606,   -85.45,          0,     0.00, 0.000618927,   108.77,    81.1611,   -25.45,    81.1609,  -145.45,    81.1606,    94.55,          0,     0.00, 0.000618927,   -71.23
Line.L_BSB_MT_8554,    81.1609,   154.55,    81.1609,    34.55,    81.1607,   -85.45,          0,     0.00, 0.000361724,   109.71,    81.1609,   -25.45,    81.1609,  -145.45,    81.1607,    94.55,          0,     0.00, 0.000361723,   -70.29
Line.L_BSB_MT_8555,    81.1609,   154.55,    81.1609,    34.55,    81.1607,   -85.45,          0,     0.00, 0.000361723,   109.71,    81.1609,   -25.45,    81.1609,  -145.45,    81.1607,    94.55,          0,     0.00, 0.000361724,   -70.29
Line.L_BSB_MT_8556,    81.1609,   154.55,    81.1609,    34.55,    81.1607,   -85.45,          0,     0.00, 0.000361723,   109.71,    81.1609,   -25.45,    81.1609,  -145.45,    81.1607,    94.55,          0,     0.00, 0.000361724,   -70.29
Line.L_BSB_MT_8557,    81.1611,   154.55,    81.1609,    34.55,    81.1606,   -85.45,          0,     0.00, 0.000618927,   108.77,    81.1611,   -25.45,    81.1609,  -145.45,    81.1606,    94.55,          0,     0.00, 0.000618927,   -71.23
Line.L_BSB_MT_8558,    81.1611,   154.55,    81.1609,    34.55,    81.1606,   -85.45,          0,     0.00, 0.000618927,   108.77,    81.1611,   -25.45,    81.1609,  -145.45,    81.1606,    94.55,          0,     0.00, 0.000618927,   -71.23
Line.L_BSB_MT_8559,    81.1611,   154.55,    81.1609,    34.55,    81.1606,   -85.45,          0,     0.00, 0.000618927,   108.77,    81.1611,   -25.45,    81.1609,  -145.45,    81.1606,    94.55,          0,     0.00, 0.000618927,   -71.23
Line.L_BSB_MT_8560,    81.1611,   154.55,    81.1609,    34.55,    81.1606,   -85.45,          0,     0.00, 0.000618927,   108.77,    81.1611,   -25.45,    81.1609,  -145.45,    81.1606,    94.55,          0,     0.00, 0.000618927,   -71.23
Line.L_BSB_MT_8561,    81.1611,   154.55,    81.1609,    34.55,    81.1606,   -85.45,          0,     0.00, 0.000618927,   108.77,    81.1611,   -25.45,    81.1609,  -145.45,    81.1606,    94.55,          0,     0.00, 0.000618927,   -71.23
Line.L_BSB_MT_8562,    81.1611,   154.55,    81.1609,    34.55,    81.1606,   -85.45,          0,     0.00, 0.000618927,   108.77,    81.1611,   -25.45,    81.1609,  -145.45,    81.1606,    94.55,          0,     0.00, 0.000618927,   -71.23
Line.L_BSB_MT_8563,    81.1611,   154.55,    81.1609,    34.55,    81.1606,   -85.45,          0,     0.00, 0.000618927,   108.77,    81.1611,   -25.45,    81.1609,  -145.45,    81.1606,    94.55,          0,     0.00, 0.000618927,   -71.23
Line.L_BSB_MT_8564,    81.1611,   154.55,    81.1609,    34.55,    81.1606,   -85.45,          0,     0.00, 0.000618927,   108.77,    81.1611,   -25.45,    81.1609,  -145.45,    81.1606,    94.55,          0,     0.00, 0.000618927,   -71.23
Line.L_BSB_MT_8565,    81.1611,   154.55,    81.1609,    34.55,    81.1606,   -85.45,          0,     0.00, 0.000618927,   108.77,    81.1611,   -25.45,    81.1609,  -145.45,    81.1606,    94.55,          0,     0.00, 0.000618927,   -71.23
Line.L_BSB_MT_8566,    81.1611,   154.55,    81.1609,    34.55,    81.1606,   -85.45,          0,     0.00, 0.000618927,   108.77,    81.1611,   -25.45,    81.1609,  -145.45,    81.1606,    94.55,          0,     0.00, 0.000618927,   -71.23
Line.L_BSB_MT_8567,    81.1611,   154.55,    81.1609,    34.55,    81.1606,   -85.45,          0,     0.00, 0.000618927,   108.77,    81.1611,   -25.45,    81.1609,  -145.45,    81.1606,    94.55,          0,     0.00, 0.000618927,   -71.23
Line.L_BSB_MT_3170,    14.8302,   155.28,    14.8297,    35.28,    14.8301,   -84.72,          0,     0.00, 0.000375295,  -157.06,    14.8302,   -24.72,    14.8297,  -144.72,    14.8301,    95.28,          0,     0.00, 0.000375295,    22.94
Line.L_BSB_MT_3171,    16.7656,   155.28,    16.7653,    35.28,    16.7658,   -84.72,          0,     0.00, 0.000278116,  -112.10,    16.7656,   -24.72,    16.7653,  -144.72,    16.7658,    95.28,          0,     0.00, 0.000278116,    67.90
Line.L_BSB_MT_7209,    2.90678,   -24.71,    2.90679,  -144.71,    2.90679,    95.29,          0,     0.00, 3.62935E-007,   143.73,    2.90678,   155.29,    2.90679,    35.29,    2.90679,   -84.71,          0,     0.00, 3.62941E-007,   -36.28
Line.L_BSB_MT_7210,    16.7656,   155.28,    16.7653,    35.28,    16.7658,   -84.72,          0,     0.00, 0.000278115,  -112.10,    16.7656,   -24.72,    16.7653,  -144.72,    16.7658,    95.28,          0,     0.00, 0.000278116,    67.90
Line.L_BSB_MT_4923,    1.17805,   -24.65,    1.17801,  -144.65,    1.17803,    95.36,          0,     0.00, 0.000126305,  -155.69,    1.17805,   155.35,    1.17801,    35.35,    1.17803,   -84.64,          0,     0.00, 0.000126305,    24.31
Line.L_BSB_MT_4924,   0.392687,   155.35,   0.392687,    35.35,   0.392687,   -84.65,          0,     0.00, 4.16841E-008,   -36.03,   0.392687,   -24.65,   0.392687,  -144.65,   0.392687,    95.35,          0,     0.00, 4.16734E-008,   144.06
Line.L_BSB_MT_4925, 5.62319E-005,  -128.29, 3.84153E-005,   137.27, 7.25193E-005,    13.64,          0,     0.00, 7.46947E-006,    -7.43, 5.62319E-005,    51.71, 3.84152E-005,   -42.73, 7.25193E-005,  -166.36,          0,     0.00, 7.46951E-006,   172.57
Line.L_BSB_MT_4927,     5.8307,   -24.69,     5.8307,  -144.69,     5.8307,    95.31,          0,     0.00, 7.03015E-007,   143.37,     5.8307,   155.31,     5.8307,    35.31,     5.8307,   -84.69,          0,     0.00, 7.03024E-007,   -36.62
Line.L_BSB_MT_4928,    2.90678,   -24.71,    2.90679,  -144.71,    2.90679,    95.29,          0,     0.00, 3.62938E-007,   143.72,    2.90678,   155.29,    2.90679,    35.29,    2.90679,   -84.71,          0,     0.00, 3.6298E-007,   -36.29
Line.L_BSB_MT_4929,    17.2823,   155.28,    17.2819,    35.28,    17.2823,   -84.72,          0,     0.00, 0.00025127,  -162.15,    17.2823,   -24.72,    17.2819,  -144.72,    17.2823,    95.28,          0,     0.00, 0.00025127,    17.85
Line.L_BSB_MT_4930,    1.16223,   -24.71,    1.16226,  -144.71,    1.16219,    95.29,          0,     0.00, 0.000101008,   -47.83,    1.16223,   155.29,    1.16226,    35.29,    1.16219,   -84.71,          0,     0.00, 0.000101008,   132.17
Line.L_BSB_MT_4934,    13.5401,   155.28,    13.5398,    35.28,      13.54,   -84.72,          0,     0.00, 0.000290165,  -174.35,    13.5401,   -24.72,    13.5398,  -144.72,      13.54,    95.28,          0,     0.00, 0.000290165,     5.65
Line.L_BSB_MT_4935,    16.7656,   155.28,    16.7653,    35.28,    16.7658,   -84.72,          0,     0.00, 0.000278116,  -112.10,    16.7656,   -24.72,    16.7653,  -144.72,    16.7658,    95.28,          0,     0.00, 0.000278116,    67.90
Line.L_BSB_MT_8671,    81.1611,   154.55,    81.1609,    34.55,    81.1606,   -85.45,          0,     0.00, 0.000618927,   108.77,    81.1611,   -25.45,    81.1609,  -145.45,    81.1606,    94.55,          0,     0.00, 0.000618927,   -71.23
Line.L_BSB_MT_8672,    81.1611,   154.55,    81.1609,    34.55,    81.1606,   -85.45,          0,     0.00, 0.000618927,   108.77,    81.1611,   -25.45,    81.1609,  -145.45,    81.1606,    94.55,          0,     0.00, 0.000618927,   -71.23
Line.L_BSB_MT_8673,     79.983,   154.54,     79.983,    34.54,    79.9828,   -85.46,          0,     0.00, 0.000385354,    93.19,     79.983,   -25.46,     79.983,  -145.46,    79.9828,    94.54,          0,     0.00, 0.000385354,   -86.81
Line.L_BSB_MT_8674,    34.9291,   155.29,     34.929,    35.29,    34.9291,   -84.71,          0,     0.00, 0.000149781,    96.61,    34.9291,   -24.71,     34.929,  -144.71,    34.9291,    95.29,          0,     0.00, 0.000149781,   -83.39
Line.L_BSB_MT_8683,   0.516543,   -24.71,   0.516543,  -144.71,   0.516543,    95.29,          0,     0.00, 6.42516E-008,   144.31,   0.516543,   155.29,   0.516543,    35.29,   0.516543,   -84.71,          0,     0.00, 6.43819E-008,   -35.72
Line.L_BSB_MT_8684,    5.80204,   155.28,    5.80194,    35.28,    5.80211,   -84.72,          0,     0.00, 8.3409E-005,  -127.54,    5.80204,   -24.72,    5.80194,  -144.72,    5.80211,    95.28,          0,     0.00, 8.3409E-005,    52.46
Line.L_BSB_MT_8765,    29.0984,   155.28,    29.0983,    35.28,    29.0984,   -84.72,          0,     0.00, 0.000150263,    96.81,    29.0984,   -24.72,    29.0983,  -144.72,    29.0984,    95.28,          0,     0.00, 0.000150263,   -83.19
Line.L_BSB_MT_8774,     81.161,   -25.45,    81.1609,  -145.45,    81.1606,    94.55,          0,     0.00, 0.000439247,   -90.75,     81.161,   154.55,    81.1609,    34.55,    81.1606,   -85.45,          0,     0.00, 0.000439247,    89.25
Line.L_BSB_MT_6000, 5.62319E-005,  -128.29, 3.84152E-005,   137.27, 7.25192E-005,    13.64,          0,     0.00, 7.46947E-006,    -7.43, 5.62319E-005,    51.71, 3.84151E-005,   -42.73, 7.25192E-005,  -166.36,          0,     0.00, 7.46954E-006,   172.57
Line.L_BSB_MT_6074,    1.17805,   -24.65,    1.17801,  -144.65,    1.17803,    95.36,          0,     0.00, 0.000126305,  -155.69,    1.17805,   155.35,    1.17801,    35.35,    1.17803,   -84.64,          0,     0.00, 0.000126305,    24.31
Line.L_BSB_MT_6078,    1.93383,   155.28,    1.93394,    35.28,    1.93397,   -84.72,          0,     0.00, 4.0318E-005,   -82.60,    1.93383,   -24.72,    1.93394,  -144.72,    1.93397,    95.28,          0,     0.00, 4.0318E-005,    97.40
Line.L_TRANSICAO_16,    16.7657,   -24.72,    16.7652,  -144.72,    16.7657,    95.28,          0,     0.00, 0.000314659,    36.12,    16.7657,   155.28,    16.7652,    35.28,    16.7657,   -84.72,          0,     0.00, 0.00031466,  -143.88
Line.L_TR_SUB_MT_FIC_522,    31.8744,   -26.59,    31.8744,  -146.59,    31.8744,    93.41,          0,     0.00, 3.88344E-006,   140.59,    31.8744,   153.41,    31.8744,    33.41,    31.8744,   -86.59,          0,     0.00, 3.88409E-006,   -39.42
Line.L_TR_SUB_MT_FIC_523,    13.1898,   -24.69,    13.1898,  -144.69,    13.1898,    95.31,          0,     0.00, 1.61216E-006,   142.70,    13.1898,   155.31,    13.1898,    35.31,    13.1898,   -84.69,          0,     0.00, 1.6103E-006,   -37.27
Line.L_TR_SUB_MT_FIC_2638,    13.1899,   -24.69,    13.1899,  -144.69,    13.1897,    95.31,          0,     0.00, 0.000101113,   -85.35,    13.1899,   155.31,    13.1899,    35.31,    13.1897,   -84.69,          0,     0.00, 0.000101113,    94.65
Line.L_TR_FIC_GER_39,    81.1611,   -25.45,    81.1608,  -145.45,    81.1606,    94.55,          0,     0.00, 0.000561547,   -81.81,    81.1611,   154.55,    81.1608,    34.55,    81.1606,   -85.45,          0,     0.00, 0.000561547,    98.19
Line.L_65635219,    81.1611,   -25.45,    81.1608,  -145.45,    81.1606,    94.55,          0,     0.00, 0.000561547,   -81.81,    81.1611,   154.55,    81.1608,    34.55,    81.1606,   -85.45,          0,     0.00, 0.000561547,    98.19
Line.L_65635220,    81.1611,   -25.45,    81.1608,  -145.45,    81.1606,    94.55,          0,     0.00, 0.000561547,   -81.81,    81.1611,   154.55,    81.1608,    34.55,    81.1606,   -85.45,          0,     0.00, 0.000561548,    98.19
Line.L_65635221,    81.1611,   -25.45,    81.1608,  -145.45,    81.1606,    94.55,          0,     0.00, 0.000561547,   -81.81,    81.1611,   154.55,    81.1608,    34.55,    81.1606,   -85.45,          0,     0.00, 0.000561547,    98.19
Line.L_65635222,    81.1611,   -25.45,    81.1608,  -145.45,    81.1606,    94.55,          0,     0.00, 0.000561547,   -81.81,    81.1611,   154.55,    81.1608,    34.55,    81.1606,   -85.45,          0,     0.00, 0.000561547,    98.19
Line.L_65635223,    81.1611,   -25.45,    81.1608,  -145.45,    81.1606,    94.55,          0,     0.00, 0.000561547,   -81.81,    81.1611,   154.55,    81.1608,    34.55,    81.1606,   -85.45,          0,     0.00, 0.000561547,    98.19
Line.L_65635224,    81.1611,   -25.45,    81.1608,  -145.45,    81.1606,    94.55,          0,     0.00, 0.000561547,   -81.81,    81.1611,   154.55,    81.1608,    34.55,    81.1606,   -85.45,          0,     0.00, 0.000561547,    98.19
Line.L_65635225,    81.1611,   -25.45,    81.1608,  -145.45,    81.1606,    94.55,          0,     0.00, 0.000561547,   -81.81,    81.1611,   154.55,    81.1608,    34.55,    81.1606,   -85.45,          0,     0.00, 0.000561547,    98.19
Line.L_65635226,    81.1611,   -25.45,    81.1608,  -145.45,    81.1606,    94.55,          0,     0.00, 0.000561547,   -81.81,    81.1611,   154.55,    81.1608,    34.55,    81.1606,   -85.45,          0,     0.00, 0.000561548,    98.19
Line.L_65635227,    81.1611,   -25.45,    81.1608,  -145.45,    81.1606,    94.55,          0,     0.00, 0.000561547,   -81.81,    81.1611,   154.55,    81.1608,    34.55,    81.1606,   -85.45,          0,     0.00, 0.000561547,    98.19
Line.L_65635228,    81.1611,   -25.45,    81.1608,  -145.45,    81.1606,    94.55,          0,     0.00, 0.000561547,   -81.81,    81.1611,   154.55,    81.1608,    34.55,    81.1606,   -85.45,          0,     0.00, 0.000561547,    98.19
Line.L_65635229,    81.1611,   -25.45,    81.1608,  -145.45,    81.1606,    94.55,          0,     0.00, 0.000561547,   -81.81,    81.1611,   154.55,    81.1608,    34.55,    81.1606,   -85.45,          0,     0.00, 0.000561547,    98.19
Line.L_65635230,    81.1611,   -25.45,    81.1608,  -145.45,    81.1606,    94.55,          0,     0.00, 0.000561547,   -81.81,    81.1611,   154.55,    81.1608,    34.55,    81.1606,   -85.45,          0,     0.00, 0.000561547,    98.19
Line.L_65635231,    81.1611,   -25.45,    81.1608,  -145.45,    81.1606,    94.55,          0,     0.00, 0.000561547,   -81.81,    81.1611,   154.55,    81.1608,    34.55,    81.1606,   -85.45,          0,     0.00, 0.000561547,    98.19
Line.L_65635232,    81.1611,   -25.45,    81.1608,  -145.45,    81.1606,    94.55,          0,     0.00, 0.000561547,   -81.81,    81.1611,   154.55,    81.1608,    34.55,    81.1606,   -85.45,          0,     0.00, 0.000561547,    98.19
Line.L_65635233,    81.1611,   -25.45,    81.1608,  -145.45,    81.1606,    94.55,          0,     0.00, 0.000561547,   -81.81,    81.1611,   154.55,    81.1608,    34.55,    81.1606,   -85.45,          0,     0.00, 0.000561547,    98.19
Line.L_65635234,    81.1611,   -25.45,    81.1608,  -145.45,    81.1606,    94.55,          0,     0.00, 0.000561547,   -81.81,    81.1611,   154.55,    81.1608,    34.55,    81.1606,   -85.45,          0,     0.00, 0.000561547,    98.19
Line.L_65635235,    81.1611,   -25.45,    81.1608,  -145.45,    81.1606,    94.55,          0,     0.00, 0.000561547,   -81.81,    81.1611,   154.55,    81.1608,    34.55,    81.1606,   -85.45,          0,     0.00, 0.000561547,    98.19
Line.L_65635236,    81.1611,   -25.45,    81.1608,  -145.45,    81.1606,    94.55,          0,     0.00, 0.000561547,   -81.81,    81.1611,   154.55,    81.1608,    34.55,    81.1606,   -85.45,          0,     0.00, 0.000561547,    98.19
Line.L_65635237,    81.1611,   -25.45,    81.1608,  -145.45,    81.1606,    94.55,          0,     0.00, 0.000561547,   -81.81,    81.1611,   154.55,    81.1608,    34.55,    81.1606,   -85.45,          0,     0.00, 0.000561547,    98.19
Line.L_65635238,    81.1611,   -25.45,    81.1608,  -145.45,    81.1606,    94.55,          0,     0.00, 0.000561547,   -81.81,    81.1611,   154.55,    81.1608,    34.55,    81.1606,   -85.45,          0,     0.00, 0.000561547,    98.19
Line.L_65635239,    81.1611,   -25.45,    81.1608,  -145.45,    81.1606,    94.55,          0,     0.00, 0.000561547,   -81.81,    81.1611,   154.55,    81.1608,    34.55,    81.1606,   -85.45,          0,     0.00, 0.000561547,    98.19
Line.L_65635240,    81.1611,   -25.45,    81.1608,  -145.45,    81.1606,    94.55,          0,     0.00, 0.000561547,   -81.81,    81.1611,   154.55,    81.1608,    34.55,    81.1606,   -85.45,          0,     0.00, 0.000561547,    98.19
Line.L_65635241,    81.1611,   -25.45,    81.1608,  -145.45,    81.1606,    94.55,          0,     0.00, 0.000561547,   -81.81,    81.1611,   154.55,    81.1608,    34.55,    81.1606,   -85.45,          0,     0.00, 0.000561547,    98.19
Line.L_65635242,    81.1611,   -25.45,    81.1608,  -145.45,    81.1606,    94.55,          0,     0.00, 0.000561547,   -81.81,    81.1611,   154.55,    81.1608,    34.55,    81.1606,   -85.45,          0,     0.00, 0.000561547,    98.19
Line.L_65635243,    81.1611,   -25.45,    81.1608,  -145.45,    81.1606,    94.55,          0,     0.00, 0.000561547,   -81.81,    81.1611,   154.55,    81.1608,    34.55,    81.1606,   -85.45,          0,     0.00, 0.000561547,    98.19
Line.L_65635244,    81.1611,   -25.45,    81.1608,  -145.45,    81.1606,    94.55,          0,     0.00, 0.000561547,   -81.81,    81.1611,   154.55,    81.1608,    34.55,    81.1606,   -85.45,          0,     0.00, 0.000561547,    98.19
Line.L_65635245,    81.1611,   -25.45,    81.1608,  -145.45,    81.1606,    94.55,          0,     0.00, 0.000561547,   -81.81,    81.1611,   154.55,    81.1608,    34.55,    81.1606,   -85.45,          0,     0.00, 0.000561547,    98.19
Line.L_65635246,    81.1611,   -25.45,    81.1608,  -145.45,    81.1606,    94.55,          0,     0.00, 0.000561547,   -81.81,    81.1611,   154.55,    81.1608,    34.55,    81.1606,   -85.45,          0,     0.00, 0.000561547,    98.19
Line.L_65635247,    81.1611,   -25.45,    81.1608,  -145.45,    81.1606,    94.55,          0,     0.00, 0.000561547,   -81.81,    81.1611,   154.55,    81.1608,    34.55,    81.1606,   -85.45,          0,     0.00, 0.000561547,    98.19
Line.L_65635248,    81.1611,   -25.45,    81.1608,  -145.45,    81.1606,    94.55,          0,     0.00, 0.000561547,   -81.81,    81.1611,   154.55,    81.1608,    34.55,    81.1606,   -85.45,          0,     0.00, 0.000561547,    98.19
Line.L_65635249,    81.1611,   -25.45,    81.1608,  -145.45,    81.1606,    94.55,          0,     0.00, 0.000561547,   -81.81,    81.1611,   154.55,    81.1608,    34.55,    81.1606,   -85.45,          0,     0.00, 0.000561547,    98.19
Line.L_65635250,    81.1611,   -25.45,    81.1608,  -145.45,    81.1606,    94.55,          0,     0.00, 0.000561547,   -81.81,    81.1611,   154.55,    81.1608,    34.55,    81.1606,   -85.45,          0,     0.00, 0.000561547,    98.19
Line.L_65635251,    81.1611,   -25.45,    81.1608,  -145.45,    81.1606,    94.55,          0,     0.00, 0.000561548,   -81.81,    81.1611,   154.55,    81.1608,    34.55,    81.1606,   -85.45,          0,     0.00, 0.000561548,    98.19
Line.L_65474273, 1.30156E-010,  -153.43, 1.86355E-010,  -128.66, 2.60313E-010,   116.57,          0,     0.00, 3.50457E-010,   175.24, 5.82077E-011,     0.00, 1.77032E-010,     9.46, 2.39996E-010,   -75.96,          0,     0.00, 3.55258E-010,   -34.99
Line.L_65434284,          0,     0.00, 4.65661E-010,   180.00, 2.60313E-010,   116.57,          0,     0.00, 6.26916E-010,   158.20, 1.64636E-010,    45.00, 3.68138E-010,    18.43,          0,     0.00,          0,     0.00, 5.20625E-010,    26.57
Line.L_65434290,    45.0592,   -26.03,    45.0592,  -146.03,    45.0589,    93.97,          0,     0.00, 0.000236009,   -88.98,    45.0592,   153.97,    45.0592,    33.97,    45.0589,   -86.03,          0,     0.00, 0.000236009,    91.02
Line.L_65434316,    45.0592,   -26.03,    45.0592,  -146.03,    45.0589,    93.97,          0,     0.00, 0.000236009,   -88.98,    45.0592,   153.97,    45.0592,    33.97,    45.0589,   -86.03,          0,     0.00, 0.000236008,    91.02
Line.L_65434319,    45.0592,   -26.03,    45.0592,  -146.03,    45.0589,    93.97,          0,     0.00, 0.000236008,   -88.98,    45.0592,   153.97,    45.0592,    33.97,    45.0589,   -86.03,          0,     0.00, 0.000236008,    91.02
Line.L_65434321,    45.0592,   -26.03,    45.0592,  -146.03,    45.0589,    93.97,          0,     0.00, 0.000236008,   -88.98,    45.0592,   153.97,    45.0592,    33.97,    45.0589,   -86.03,          0,     0.00, 0.000236008,    91.02
Line.L_65434326,    45.0592,   -26.03,    45.0592,  -146.03,    45.0589,    93.97,          0,     0.00, 0.000236008,   -88.98,    45.0592,   153.97,    45.0592,    33.97,    45.0589,   -86.03,          0,     0.00, 0.000236008,    91.02
Line.L_65434323,    45.0592,   -26.03,    45.0592,  -146.03,    45.0589,    93.97,          0,     0.00, 0.000236008,   -88.98,    45.0592,   153.97,    45.0592,    33.97,    45.0589,   -86.03,          0,     0.00, 0.000236008,    91.02
Line.L_65434325,    45.0592,   -26.03,    45.0592,  -146.03,    45.0589,    93.97,          0,     0.00, 0.000236009,   -88.98,    45.0592,   153.97,    45.0592,    33.97,    45.0589,   -86.03,          0,     0.00, 0.000236009,    91.02
Line.L_TR_MT_ALIM37,    81.1611,   -25.45,    81.1608,  -145.45,    81.1606,    94.55,          0,     0.00, 0.000561547,   -81.81,    81.1611,   154.55,    81.1608,    34.55,    81.1606,   -85.45,          0,     0.00, 0.000561548,    98.19
Line.L_TR_SUB_MT_FIC_1810,    31.8744,   -26.59,    31.8745,  -146.59,    31.8744,    93.41,          0,     0.00, 0.00013525,   -91.70,    31.8744,   153.41,    31.8745,    33.41,    31.8744,   -86.59,          0,     0.00, 0.000135249,    88.30
Line.SW_FP4054,    1.93389,   155.28,    1.93389,    35.28,    1.93398,   -84.72,          0,     0.00, 8.11016E-005,  -131.19,    1.93389,   -24.72,    1.93389,  -144.72,    1.93398,    95.28,          0,     0.00, 8.11016E-005,    48.81
Line.SW_FA0371,     81.161,   154.55,    81.1608,    34.55,    81.1607,   -85.45,          0,     0.00, 0.000366211,    90.00,     81.161,   -25.45,    81.1608,  -145.45,    81.1607,    94.55,          0,     0.00, 0.000366211,   -90.00
Line.SW_FU0078,    16.7657,   155.28,    16.7653,    35.28,    16.7657,   -84.72,          0,     0.00, 0.000243305,  -131.19,    16.7657,   -24.72,    16.7653,  -144.72,    16.7657,    95.28,          0,     0.00, 0.000243305,    48.81
Line.SW_FU0055,    1.16223,   155.29,     1.1623,    35.29,    1.16218,   -84.71,          0,     0.00, 0.000111086,    15.95,    1.16223,   -24.71,     1.1623,  -144.71,    1.16218,    95.29,          0,     0.00, 0.000111086,  -164.05
Line.SW_ES12_SES, 3.14568E-005,  -104.04, 6.29136E-005,    75.96, 7.62939E-005,    53.13,          0,     0.00, 0.000105991,    59.74, 3.14568E-005,    75.96, 6.29136E-005,  -104.04, 7.62939E-005,  -126.87,          0,     0.00, 0.000105991,  -120.26
Line.SW_FZ5597,    16.7657,   155.28,    16.7652,    35.28,    16.7657,   -84.72,          0,     0.00, 0.000439668,  -141.34,    16.7657,   -24.72,    16.7652,  -144.72,    16.7657,    95.28,          0,     0.00, 0.000439668,    38.66
Line.SW_FIC2451,    1.93393,   155.28,    1.93386,    35.28,    1.93386,   -84.72,          0,     0.00, 9.18701E-005,    94.76,    1.93393,   -24.72,    1.93386,  -144.72,    1.93386,    95.28,          0,     0.00, 9.18701E-005,   -85.24
Line.SW_FIC524_CHVPRI,    31.8746,   -26.59,    31.8745,  -146.59,    31.8744,    93.41,          0,     0.00, 9.65051E-005,   -71.57,    31.8746,   153.41,    31.8745,    33.41,    31.8744,   -86.59,          0,     0.00, 9.65051E-005,   108.43
Line.SW_FIC525_CHVPRI,    13.1898,   -24.69,    13.1899,  -144.69,    13.1898,    95.31,          0,     0.00, 0.000136479,  -153.43,    13.1898,   155.31,    13.1899,    35.31,    13.1898,   -84.69,          0,     0.00, 0.000136479,    26.57
Line.SW_FW0953, 9.28156E-005,    99.46, 1.52588E-005,   180.00, 6.10352E-005,   -90.00,          0,     0.00, 4.31584E-005,   135.00, 9.28156E-005,   -80.54, 1.52588E-005,     0.00, 6.10352E-005,    90.00,          0,     0.00, 4.31584E-005,   -45.00
Line.SW_FP4037, 0.000103771,   143.97, 4.8852E-005,   -38.66, 3.05176E-005,   180.00,          0,     0.00, 8.21711E-005,   158.20, 0.000103771,   -36.03, 4.8852E-005,   141.34, 3.05176E-005,     0.00,          0,     0.00, 8.21711E-005,   -21.80
Line.SW_FP4050,    5.80203,   155.28,    5.80197,    35.28,     5.8022,   -84.72,          0,     0.00, 0.000238838,  -116.57,    5.80203,   -24.72,    5.80197,  -144.72,     5.8022,    95.28,          0,     0.00, 0.000238838,    63.43
Line.SW_FU0023,    1.17802,   155.35,    1.17805,    35.35,      1.178,   -84.64,          0,     0.00, 9.65051E-005,    18.43,    1.17802,   -24.65,    1.17805,  -144.65,      1.178,    95.36,          0,     0.00, 9.65051E-005,  -161.57
Line.SW_FU0077, 6.10352E-005,   -90.00, 0.000125827,    14.04, 0.000110033,   146.31,          0,     0.00, 4.31584E-005,    45.00, 6.10352E-005,    90.00, 0.000125827,  -165.96, 0.000110033,   -33.69,          0,     0.00, 4.31584E-005,  -135.00
Line.SW_FT1650,    14.8302,   155.28,    14.8298,    35.28,    14.8301,   -84.72,          0,     0.00, 0.000401396,  -171.25,    14.8302,   -24.72,    14.8298,  -144.72,    14.8301,    95.28,          0,     0.00, 0.000401396,     8.75
Line.SW_FT8368, 0.000105991,   120.26, 8.39233E-005,   180.00, 7.62939E-005,   -53.13,          0,     0.00, 9.65051E-005,   161.57, 0.000105991,   -59.74, 8.39233E-005,     0.00, 7.62939E-005,   126.87,          0,     0.00, 9.65051E-005,   -18.43
Line.SW_FA0364,    29.0984,   155.28,    29.0982,    35.28,    29.0984,   -84.72,          0,     0.00, 9.18701E-005,   138.37,    29.0984,   -24.72,    29.0982,  -144.72,    29.0984,    95.28,          0,     0.00, 9.18701E-005,   -41.63
Line.SW_FP4032, 3.14568E-005,   -75.96, 6.82394E-005,  -116.57, 7.62939E-005,   180.00,          0,     0.00, 0.000134978,  -137.29, 3.14568E-005,   104.04, 6.82394E-005,    63.43, 7.62939E-005,     0.00,          0,     0.00, 0.000134978,    42.71
Line.SW_FW6913, 8.92998E-005,   160.02, 3.14568E-005,  -104.04, 6.29136E-005,   104.04,          0,     0.00, 0.00012302,   150.26, 8.92998E-005,   -19.98, 3.14568E-005,    75.96, 6.29136E-005,   -75.96,          0,     0.00, 0.00012302,   -29.74
Line.SW_FP8565_DP_33884,      13.54,   155.28,    13.5398,    35.28,      13.54,   -84.72,          0,     0.00,  0.0001786,  -160.02,      13.54,   -24.72,    13.5398,  -144.72,      13.54,    95.28,          0,     0.00,  0.0001786,    19.98
Line.SW_FW0115,    81.1612,   154.55,    81.1609,    34.55,    81.1607,   -85.45,          0,     0.00, 0.000651856,   110.56,    81.1612,   -25.45,    81.1609,  -145.45,    81.1607,    94.55,          0,     0.00, 0.000651856,   -69.44
Line.SW_FA0367,     81.161,   154.55,    81.1608,    34.55,    81.1605,   -85.45,          0,     0.00, 0.000610542,    91.43,     81.161,   -25.45,    81.1608,  -145.45,    81.1605,    94.55,          0,     0.00, 0.000610542,   -88.57
Line.SW_FW3110, 7.62939E-006,     0.00,  0.0001297,   180.00, 6.82394E-005,   116.57,          0,     0.00, 0.000164342,   158.20, 7.62939E-006,   180.00,  0.0001297,     0.00, 6.82394E-005,   -63.43,          0,     0.00, 0.000164342,   -21.80
Line.SW_FT1682,   0.392767,   155.35,   0.392674,    35.35,   0.392779,   -84.63,          0,     0.00, 0.000129475,   -45.00,   0.392767,   -24.65,   0.392674,  -144.65,   0.392779,    95.37,          0,     0.00, 0.000129475,   135.00
Line.SW_FW3069,   0.785307,   155.35,   0.785442,    35.34,   0.785404,   -84.65,          0,     0.00, 0.000204718,   -26.57,   0.785307,   -24.65,   0.785442,  -144.66,   0.785404,    95.35,          0,     0.00, 0.000204718,   153.43
Line.SW_FW0954,    29.0985,   155.28,    29.0982,    35.28,    29.0984,   -84.72,          0,     0.00, 0.000183105,   180.00,    29.0985,   -24.72,    29.0982,  -144.72,    29.0984,    95.28,          0,     0.00, 0.000183105,     0.00
Transformer.T_FF3295,   0.774052,   -24.72,   0.774052,  -144.72,   0.774052,    95.28, 9.52731E-008,   -32.56, 6.44526E-014,    78.07,    28.1103,   155.28,    28.1103,    35.28,    28.1103,   -84.72, 3.45992E-006,   147.44, 2.1857E-012,    77.23
Transformer.T_FZ5597,    1.93558,   -24.72,    1.93558,  -144.72,    1.93558,    95.28, 2.3826E-007,   -33.52, 1.54339E-013,    78.04,    70.2919,   155.28,     70.292,    35.28,     70.292,   -84.72, 8.6526E-006,   146.48, 5.2407E-012,    77.47
Transformer.T_FP4050,     3.8681,   -24.72,     3.8681,  -144.72,     3.8681,    95.28, 4.76446E-007,   -30.92, 3.43715E-013,    82.87,    140.473,   155.28,    140.473,    35.28,    140.473,   -84.72, 1.73025E-005,   149.08, 1.1371E-011,    78.47
Transformer.T_FP4049,    1.16225,   -24.71,    1.16225,  -144.71,    1.16225,    95.29, 1.46182E-007,   -35.96, 9.65299E-014,    77.24,    42.2079,   155.29,    42.2079,    35.29,    42.2079,   -84.71, 5.30871E-006,   144.04, 3.4902E-012,    73.93
Transformer.T_FP8080,    1.93383,   -24.72,    1.93383,  -144.72,    1.93383,    95.28, 2.36169E-007,   -30.74, 1.53796E-013,    83.37,    70.2287,   155.28,    70.2287,    35.28,    70.2287,   -84.72, 8.57667E-006,   149.26, 5.73527E-012,    76.24
Transformer.T_FP4038,   0.785369,   -24.65,   0.785369,  -144.65,   0.785369,    95.35, 8.33957E-008,   -36.05, 5.62645E-014,    78.16,    28.5213,   155.35,    28.5213,    35.35,    28.5213,   -84.65, 3.02858E-006,   143.95, 1.86222E-012,    74.05
Transformer.T_FT8368,   0.516543,   -24.71,   0.516543,  -144.71,   0.516543,    95.29, 6.44237E-008,   -35.48, 4.46039E-014,    77.35,    18.7587,   155.29,    18.7587,    35.29,    18.7587,   -84.71, 2.3396E-006,   144.52, 1.48909E-012,    76.76
Transformer.T_FP4041,    2.90678,   -24.71,    2.90679,  -144.71,    2.90679,    95.29, 3.62924E-007,   -36.29, 2.39696E-013,    78.02,    105.562,   155.29,    105.562,    35.29,    105.562,   -84.71, 1.31799E-005,   143.71, 8.09096E-012,    72.84
Transformer.T_FF3292,   0.392687,   -24.65,   0.392687,  -144.65,   0.392687,    95.35, 4.16449E-008,   -36.05, 2.73935E-014,    73.03,    14.2607,   155.35,    14.2607,    35.35,    14.2607,   -84.65, 1.51237E-006,   143.95, 9.54775E-013,    75.34
Transformer.T_FF3294,    7.74722,   -24.71,    7.74722,  -144.71,    7.74722,    95.29, 9.62777E-007,   -36.38, 6.54972E-013,    74.91,    281.346,   155.29,    281.346,    35.29,    281.346,   -84.71, 3.4964E-005,   143.62, 2.26143E-011,    74.85
Transformer.T_FP8565,    7.73791,   -24.72,    7.73791,  -144.72,    7.73791,    95.28, 9.57117E-007,   -31.49, 6.3763E-013,    75.81,    281.008,   155.28,    281.008,    35.28,    281.008,   -84.72, 3.47585E-005,   148.51, 2.16184E-011,    75.38
Transformer.T_FT1649,   0.515935,   -24.72,   0.515935,  -144.72,   0.515935,    95.28, 6.3687E-008,   -31.92, 3.8847E-014,    79.46,    18.7366,   155.28,    18.7366,    35.28,    18.7366,   -84.72, 2.31284E-006,   148.08, 1.46144E-012,    76.50
Transformer.T_FF3293,     5.8307,   -24.69,     5.8307,  -144.69,     5.8307,    95.31, 7.03036E-007,   -36.63, 4.4623E-013,    80.84,    211.746,   155.31,    211.746,    35.31,    211.746,   -84.69, 2.55313E-005,   143.37, 1.81216E-011,    72.47
Transformer.T_FIC6318_SUBT,    31.8744,   -26.59,    31.8744,  -146.59,    31.8744,    93.41, 3.88545E-006,   -39.43, 1.05218E-012,    73.52,    1157.54,   153.41,    1157.55,    33.41,    1157.55,   -86.59, 0.000141103,   140.57, 3.42301E-011,    70.60
Transformer.T_FIC6319_SUBT,    13.1898,   -24.69,    13.1898,  -144.69,    13.1898,    95.31, 1.60746E-006,   -37.29, 1.03749E-012,    76.53,    478.999,   155.31,    478.999,    35.31,    478.999,   -84.69, 5.83763E-005,   142.71, 3.8169E-011,    74.80
Load.L_FF3295,    28.1103,   -24.72,    28.1103,  -144.72,    28.1103,    95.28, 3.45992E-006,   -32.56,          0,     0.00,          0,     0.00,          0,     0.00,          0,     0.00,          0,     0.00,          0,     0.00
Load.L_FZ5597,     70.292,   -24.72,     70.292,  -144.72,     70.292,    95.28, 8.65261E-006,   -33.52,          0,     0.00,          0,     0.00,          0,     0.00,          0,     0.00,          0,     0.00,          0,     0.00
Load.L_FP4050,    140.473,   -24.72,    140.473,  -144.72,    140.473,    95.28, 1.73025E-005,   -30.92,          0,     0.00,          0,     0.00,          0,     0.00,          0,     0.00,          0,     0.00,          0,     0.00
Load.L_FP4049,    42.2079,   -24.71,    42.2079,  -144.71,    42.2079,    95.29, 5.30871E-006,   -35.96,          0,     0.00,          0,     0.00,          0,     0.00,          0,     0.00,          0,     0.00,          0,     0.00
Load.L_FP8080,    70.2288,   -24.72,    70.2288,  -144.72,    70.2288,    95.28, 8.57668E-006,   -30.74,          0,     0.00,          0,     0.00,          0,     0.00,          0,     0.00,          0,     0.00,          0,     0.00
Load.L_FP4038,    28.5213,   -24.65,    28.5213,  -144.65,    28.5213,    95.35, 3.02858E-006,   -36.05,          0,     0.00,          0,     0.00,          0,     0.00,          0,     0.00,          0,     0.00,          0,     0.00
Load.L_FT8368,    18.7587,   -24.71,    18.7587,  -144.71,    18.7587,    95.29, 2.3396E-006,   -35.48,          0,     0.00,          0,     0.00,          0,     0.00,          0,     0.00,          0,     0.00,          0,     0.00
Load.L_FP4041,    105.562,   -24.71,    105.562,  -144.71,    105.562,    95.29, 1.31799E-005,   -36.29,          0,     0.00,          0,     0.00,          0,     0.00,          0,     0.00,          0,     0.00,          0,     0.00
Load.L_FF3292,    14.2607,   -24.65,    14.2608,  -144.65,    14.2608,    95.35, 1.51237E-006,   -36.05,          0,     0.00,          0,     0.00,          0,     0.00,          0,     0.00,          0,     0.00,          0,     0.00
Load.L_FF3294,    281.347,   -24.71,    281.347,  -144.71,    281.347,    95.29, 3.4964E-005,   -36.38,          0,     0.00,          0,     0.00,          0,     0.00,          0,     0.00,          0,     0.00,          0,     0.00
Load.L_FP8565,    281.009,   -24.72,    281.009,  -144.72,    281.009,    95.28, 3.47585E-005,   -31.49,          0,     0.00,          0,     0.00,          0,     0.00,          0,     0.00,          0,     0.00,          0,     0.00
Load.L_FT1649,    18.7366,   -24.72,    18.7366,  -144.72,    18.7366,    95.28, 2.31285E-006,   -31.92,          0,     0.00,          0,     0.00,          0,     0.00,          0,     0.00,          0,     0.00,          0,     0.00
Load.L_FF3293,    211.747,   -24.69,    211.747,  -144.69,    211.747,    95.31, 2.55313E-005,   -36.63,          0,     0.00,          0,     0.00,          0,     0.00,          0,     0.00,          0,     0.00,          0,     0.00
Load.L_FIC6318_SUBT,    1157.55,   -26.59,    1157.55,  -146.59,    1157.55,    93.41, 0.000141103,   -39.43,          0,     0.00,          0,     0.00,          0,     0.00,          0,     0.00,          0,     0.00,          0,     0.00
Load.L_FIC6319_SUBT,    478.999,   -24.69,    478.999,  -144.69,    478.999,    95.31, 5.83763E-005,   -37.29,          0,     0.00,          0,     0.00,          0,     0.00,          0,     0.00,          0,     0.00,          0,     0.00
